@<TRIPOS>MOLECULE
TFA_A.pdb
63   65    1
SMALL
USER_CHARGES


@<TRIPOS>ATOM
      1 O1        -14.6350   13.0880  -32.9320 O.3       1 UNK         0.0000 
      2 O2        -16.7060   11.9330  -33.2080 O.3       1 UNK         0.0000 
      3 C3        -14.8870    9.1930  -29.5470 C.3       1 UNK         0.0000 
      4 C4        -15.3030   11.9560  -33.5120 C.3       1 UNK         0.0000 
      5 C5        -19.1240   14.5990  -35.2490 C.ar      1 UNK         0.0000 
      6 N6        -19.9550   15.3730  -35.9430 N.pl3     1 UNK         0.0000 
      7 C7        -14.9480    7.6820  -29.3130 C.3       1 UNK         0.0000 
      8 C8        -14.7280   10.6590  -32.9400 C.3       1 UNK         0.0000 
      9 C9        -19.5820   13.9670  -34.0990 C.ar      1 UNK         0.0000 
     10 N10       -15.4160    9.5110  -33.5470 N.am      1 UNK         0.0000 
     11 O11       -15.9320    7.0880  -30.1650 O.3       1 UNK         0.0000 
     12 O12       -19.5280   15.9870  -37.1510 O.co2     1 UNK         0.0000 
     13 C13       -15.2650    7.3640  -27.8510 C.3       1 UNK         0.0000 
     14 C14       -14.9670   10.6280  -31.4300 C.3       1 UNK         0.0000 
     15 C15       -18.7390   13.1150  -33.3950 C.ar      1 UNK         0.0000 
     16 O16       -15.1590    5.9530  -27.6440 O.3       1 UNK         0.0000 
     17 O17       -14.4540    9.3960  -30.9010 O.3       1 UNK         0.0000 
     18 O18       -21.2820   15.5760  -35.4790 O.co2     1 UNK         0.0000 
     19 C19       -14.2600    8.0920  -26.9570 C.3       1 UNK         0.0000 
     20 C20       -14.2450   11.8450  -30.8510 C.3       1 UNK         0.0000 
     21 C21       -17.4410   12.8890  -33.8380 C.ar      1 UNK         0.0000 
     22 O22       -12.9490    7.5760  -27.2030 O.3       1 UNK         0.0000 
     23 O23       -12.8430   11.7200  -31.1000 O.3       1 UNK         0.0000 
     24 C24       -14.2880    9.5870  -27.2810 C.3       1 UNK         0.0000 
     25 C25       -14.7740   13.1270  -31.5010 C.3       1 UNK         0.0000 
     26 C26       -16.9800   13.5300  -34.9830 C.ar      1 UNK         0.0000 
     27 O27       -13.9290    9.7910  -28.6570 O.3       1 UNK         0.0000 
     28 C28       -13.3040   10.3250  -26.3720 C.3       1 UNK         0.0000 
     29 C29       -13.9780   14.3200  -30.9710 C.3       1 UNK         0.0000 
     30 C30       -17.8220   14.3850  -35.6870 C.ar      1 UNK         0.0000 
     31 O31       -13.3420   11.7230  -26.6700 O.3       1 UNK         0.0000 
     32 O32       -14.4830   15.5280  -31.5480 O.3       1 UNK         0.0000 
     33 C33       -14.8740    8.8000  -34.5320 C.2       1 UNK         0.0000 
     34 O34       -13.6450    9.1290  -35.0110 O.2       1 UNK         0.0000 
     35 C35       -15.5640    7.7170  -35.0650 C.3       1 UNK         0.0000 
     36 H36       -15.8706    9.6376  -29.3955 H         1 UNK         0.0000 
     37 H37       -15.1659   11.9682  -34.5933 H         1 UNK         0.0000 
     38 H38       -13.9755    7.2545  -29.5571 H         1 UNK         0.0000 
     39 H39       -13.6594   10.6035  -33.1478 H         1 UNK         0.0000 
     40 H40       -20.5910   14.1383  -33.7541 H         1 UNK         0.0000 
     41 H41       -16.3299    9.2678  -33.1923 H         1 UNK         0.0000 
     42 H42       -15.9611    6.1411  -30.0094 H         1 UNK         0.0000 
     43 H43       -16.2758    7.6955  -27.6135 H         1 UNK         0.0000 
     44 H44       -16.0350   10.7009  -31.2244 H         1 UNK         0.0000 
     45 H45       -19.0916   12.6251  -32.4994 H         1 UNK         0.0000 
     46 H46       -15.3571    5.7478  -26.7273 H         1 UNK         0.0000 
     47 H47       -14.5232    7.9392  -25.9103 H         1 UNK         0.0000 
     48 H48       -14.4176   11.8885  -29.7756 H         1 UNK         0.0000 
     49 H49       -12.3154    8.0308  -26.6433 H         1 UNK         0.0000 
     50 H50       -12.3841   12.4818  -30.7385 H         1 UNK         0.0000 
     51 H51       -15.2931    9.9728  -27.1108 H         1 UNK         0.0000 
     52 H52       -15.8259   13.2533  -31.2446 H         1 UNK         0.0000 
     53 H53       -15.9691   13.3639  -35.3250 H         1 UNK         0.0000 
     54 H54       -12.2969    9.9447  -26.5426 H         1 UNK         0.0000 
     55 H55       -13.5842   10.1681  -25.3304 H         1 UNK         0.0000 
     56 H56       -12.9274   14.2023  -31.2365 H         1 UNK         0.0000 
     57 H57       -14.0744   14.3678  -29.8863 H         1 UNK         0.0000 
     58 H58       -17.4624   14.8829  -36.5754 H         1 UNK         0.0000 
     59 H59       -12.7251   12.1889  -26.1008 H         1 UNK         0.0000 
     60 H60       -13.9824   16.2762  -31.2144 H         1 UNK         0.0000 
     61 H61       -14.9690    7.2599  -35.8556 H         1 UNK         0.0000 
     62 H62       -15.7508    6.9831  -34.2811 H         1 UNK         0.0000 
     63 H63       -16.5140    8.0578  -35.4768 H         1 UNK         0.0000 
@<TRIPOS>BOND
     1    1    4 1    
     2    1   25 1    
     3    2    4 1    
     4    2   21 1    
     5    3    7 1    
     6    3   17 1    
     7    3   27 1    
     8    3   36 1    
     9    4    8 1    
    10    4   37 1    
    11    5    6 1    
    12    5    9 ar   
    13    5   30 ar   
    14    6   12 1    
    15    6   18 2    
    16    7   11 1    
    17    7   13 1    
    18    7   38 1    
    19    8   10 1    
    20    8   14 1    
    21    8   39 1    
    22    9   15 ar   
    23    9   40 1    
    24   10   33 am   BACKBONE|DICT|INTERRES
    25   10   41 1    
    26   11   42 1    
    27   13   16 1    
    28   13   19 1    
    29   13   43 1    
    30   14   17 1    
    31   14   20 1    
    32   14   44 1    
    33   15   21 ar   
    34   15   45 1    
    35   16   46 1    
    36   19   22 1    
    37   19   24 1    
    38   19   47 1    
    39   20   23 1    
    40   20   25 1    
    41   20   48 1    
    42   21   26 ar   
    43   22   49 1    
    44   23   50 1    
    45   24   27 1    
    46   24   28 1    
    47   24   51 1    
    48   25   29 1    
    49   25   52 1    
    50   26   30 ar   
    51   26   53 1    
    52   28   31 1    
    53   28   54 1    
    54   28   55 1    
    55   29   32 1    
    56   29   56 1    
    57   29   57 1    
    58   30   58 1    
    59   31   59 1    
    60   32   60 1    
    61   33   34 2    
    62   33   35 1    
    63   35   61 1    
    64   35   62 1    
    65   35   63 1    
@<TRIPOS>SUBSTRUCTURE
     1 UNK         1 GROUP             0       ****    0 ROOT    
